# generated using pymatgen
data_Hf2Zr2Ta7Ti2Nb7
_symmetry_space_group_name_H-M   'P 1'
_cell_length_a   7.37005943
_cell_length_b   7.37005927
_cell_length_c   10.40155591
_cell_angle_alpha   118.33871618
_cell_angle_beta   118.33871305
_cell_angle_gamma   33.52082524
_symmetry_Int_Tables_number   1
_chemical_formula_structural   Hf2Zr2Ta7Ti2Nb7
_chemical_formula_sum   'Hf2 Zr2 Ta7 Ti2 Nb7'
_cell_volume   270.97093780
_cell_formula_units_Z   1
loop_
 _symmetry_equiv_pos_site_id
 _symmetry_equiv_pos_as_xyz
  1  'x, y, z'
loop_
 _atom_site_type_symbol
 _atom_site_label
 _atom_site_symmetry_multiplicity
 _atom_site_fract_x
 _atom_site_fract_y
 _atom_site_fract_z
 _atom_site_occupancy
  Hf  Hf0  1  0.60175296  0.60175268  0.89959653  1
  Hf  Hf1  1  0.39648242  0.39648213  0.84431787  1
  Zr  Zr2  1  0.59922047  0.59922069  0.14833324  1
  Zr  Zr3  1  0.80651387  0.80651417  0.46025928  1
  Ta  Ta4  1  0.79755451  0.79755471  0.19641218  1
  Ta  Ta5  1  0.39785970  0.39785978  0.10245962  1
  Ta  Ta6  1  0.60016542  0.60016567  0.40145652  1
  Ta  Ta7  1  0.20513417  0.20513452  0.30251502  1
  Ta  Ta8  1  0.00087121  0.00087145  0.25120038  1
  Ta  Ta9  1  -0.00243954  -0.00243984  0.75111075  1
  Ta  Ta10  1  0.80315294  0.80315278  0.94939635  1
  Ti  Ti11  1  0.40130279  0.40130271  0.59631091  1
  Ti  Ti12  1  0.19972245  0.19972239  0.04732998  1
  Nb  Nb13  1  0.79613574  0.79613542  0.69647021  1
  Nb  Nb14  1  0.00480859  0.00480852  0.00321834  1
  Nb  Nb15  1  -0.00118322  -0.00118310  0.50033929  1
  Nb  Nb16  1  0.19636026  0.19635995  0.80078002  1
  Nb  Nb17  1  0.39903111  0.39903138  0.34822133  1
  Nb  Nb18  1  0.20000966  0.20000966  0.55190947  1
  Nb  Nb19  1  0.59754450  0.59754432  0.64836270  1
